/batch
/config,noeldb,1     ! force off writing results to database
*get,_wallstrt,active,,time,wall
! ANSYS input file written by Workbench version 2023 R2
! File used for geometry attach: C:\Users\gigig\AppData\Local\Temp\WB_gigig_20028_2\wbnew_files\dp0\SYS\DM\SYS.agdb
/title,eeee--Static Structural (A5)
! ****** Begin Custom Load Command Snippet ******
/COM, ACT Extensions:
/COM,     LSDYNA, 2023.2
/COM,     5f463412-bd3e-484b-87e7-cbc0a665e474, wbex
/COM,/COM,     ANSYSMotion, 2023.2
/COM,     20180725-3f81-49eb-9f31-41364844c769, wbex
/COM,
! ****** End   Custom Load Command Snippet ******
*DIM,_wb_ProjectScratch_dir,string,248
_wb_ProjectScratch_dir(1) = 'C:\Users\gigig\Downloads\_ProjectScratch\Scr2362\'
*DIM,_wb_SolverFiles_dir,string,248
_wb_SolverFiles_dir(1) = 'C:\Users\gigig\Downloads\eeee_files\dp0\SYS\MECH\'
*DIM,_wb_userfiles_dir,string,248
_wb_userfiles_dir(1) = 'C:\Users\gigig\Downloads\eeee_files\user_files\'
/com,--- Data in consistent NMM units. See Solving Units in the help system for more information.
/units,MPA
/nopr
/wb,file,start              !  signify a WB generated input file
/prep7
! Turn off shape checking because checks already performed inside WB mesher.
! See help system for more information.
SHPP,OFF,,NOWARN
/nolist
etcon,set             ! allow ANSYS to choose best KEYOP's for 180x elements, resets any applicable keyopt to MAPDL defaults
/com,*********** Nodes for the whole assembly ***********
nblock,3,,10887
(1i9,3e20.9e3)
        1    -2.316254227E+01     6.666666667E+00    -9.736215332E+00
        2    -2.316254227E+01     1.333333333E+01    -9.736215332E+00
        3    -2.217073548E+01     6.666666667E+00    -9.963504371E+00
        4    -2.217073548E+01     1.333333333E+01    -9.963504371E+00
        5    -4.726520890E+01     6.666666667E+00     9.618290887E+00
        6    -4.726520890E+01     1.333333333E+01     9.618290887E+00
        7     7.602793595E+01     6.666666667E+00    -7.743035426E+00
        8     7.602793595E+01     1.333333333E+01    -7.743035426E+00
        9    -2.082061966E+01     6.666666667E+00    -1.064178854E+01
       10    -2.082061966E+01     1.333333333E+01    -1.064178854E+01
       11    -2.071725534E+01     6.666666667E+00    -1.002711416E+01
       12    -2.071725534E+01     1.333333333E+01    -1.002711416E+01
       13    -2.219706964E+01     6.666666667E+00    -8.750206499E+00
       14    -2.219706964E+01     1.333333333E+01    -8.750206499E+00
       15     2.170065784E+01     6.666666667E+00    -1.108204556E+01
       16     2.170065784E+01     1.333333333E+01    -1.108204556E+01
       17    -3.369952587E+01     6.666666667E+00    -5.705603926E+00
       18    -3.369952587E+01     1.333333333E+01    -5.705603926E+00
       19     4.778066117E+01     6.666666667E+00     7.544180895E+00
       20     4.778066117E+01     1.333333333E+01     7.544180895E+00
! ... 9879 like lines cut
/wb,elem,start            !  set before creation of elements
/com,*********** Elements for Body 1 "beam2" ***********
et,1,186
keyo,1,2,1          ! set full integration on SOLID186
eblock,19,solid,,1521
(19i9)
        1        1        1        1        0        0        0        0       20        0        1      161      291     2587     2577      772      707     2596     2575
     3609     4141     9436     3612     5533     5535     9433     5685     3611     4140     9461     9432
        1        1        1        1        0        0        0        0       20        0        2      161     2577     2587      291      162     2576     2578      292
     3612     9436     4141     3609     3617     9435     4144     3614     3607     9434     9438     4138
        1        1        1        1        0        0        0        0       20        0        3      162     2576     2578      292      933     1230     1229      998
     3617     9435     4144     3614     6046     6714     6212     6044     3616     6717     6715     4143
        1        1        1        1        0        0        0        0       20        0        4      225     2588     2587      291      740     2597     2596      707
     3894     9460     4141     3890     5621     9483     5535     5532     3893     9463     9461     4140
        1        1        1        1        0        0        0        0       20        0        5      225      291     2587     2588      226      292     2578     2579
     3890     4141     9460     3894     3895     4144     9437     3899     3889     4138     9438     9440
        1        1        1        1        0        0        0        0       20        0        6      226      292     2578     2579      965      998     1229     1228
     3895     4144     9437     3899     6136     6212     6712     6139     3898     4143     6715     6713
        1        1        1        1        0        0        0        0       20        0        7       75      291      161      347      815      707      772      679
     3200     3609     3610     3201     5534     5533     5444     5446     3203     4140     3611     4331
        1        1        1        1        0        0        0        0       20        0        8       75      347      161      291       76      348      162      292
     3201     3610     3609     3200     3206     3615     3614     3205     3198     4330     3607     4138
        1        1        1        1        0        0        0        0       20        0        9       76      348      162      292      890     1026      933      998
     3206     3615     3614     3205     5905     6045     6044     5904     3208     4332     3616     4143
        1        1        1        1        0        0        0        0       20        0       10        1       35       57        3      852      835      824      851
     2860     3032     2868     2858     5771     5758     5760     5787     2861     3034     3132     2870
! ... 3023 like lines cut
!Material Id = {86FD0BDC-E8BD-46C0-A3D1-39E8270551B0}
/wb,elem,end               !  done creating elements
/com,*********** Send User Defined Coordinate System(s) ***********
csys,0
toffst,273.15,  ! Temperature offset from absolute zero
/com,*********** Set Reference Temperature ***********
tref,22.
/wb,mat,start              !  starting to send materials
/com,*********** Send Materials ***********
MP,EX,1,2100,	! tonne s^-2 mm^-1
MP,NUXY,1,0,
MP,DENS,1,1.1e-09,	! tonne mm^-3
MP,UVID,1,46531857-5842-4436-80df-7fe49eab8c34

/wb,mat,end                !  done sending materials
!************************* Model Summary ********************
!beam2,	AER304 Platic,	matid,	1
!************************* End Model Summary ********************
! get the diagonal of the bounding box. Needed later for other things
*get,_xmin,node,,mnloc,x
*get,_ymin,node,,mnloc,y
*get,_zmin,node,,mnloc,z
*get,_xmax,node,,mxloc,x
*get,_ymax,node,,mxloc,y
*get,_zmax,node,,mxloc,z
_ASMDIAG=(_xmax-_xmin)*(_xmax-_xmin)+(_ymax-_ymin)*(_ymax-_ymin)+(_zmax-_zmin)*(_zmax-_zmin)
_ASMDIAG=SQRT(_ASMDIAG)
/wb,contact,start          !  starting to send contact
/wb,contact,end            !  done creating contacts
/golist
/wb,load,start             !  starting to send loads
/com,*********** Fixed Supports ***********
CMBLOCK,_FIXEDSU,NODE,       14
(8i10)
      1563      1566      1573      1574      1575      1717      1718      1719
      7437      7442      7459      7462      7801      7804
cmsel,s,_FIXEDSU
d,all,all
nsel,all
/com,*********** Define Force Using Surface Effect Elements ***********
local,12,0,0.,0.,0.,0.,0.,0.
csys,0
et,2,156
mat,2
keyop,2,5,1         !  No orientation node
eblock,10,,,3
(15i9)
     3826        2        2        2       12     1769     1768     7922
     3827        2        2        2       12     1769     1770     7924
     3828        2        2        2       12     1770     1515     7341
-1
esel,s,type,,2
keyop,2,2,1                ! Apply load in local coordinate system
keyop,2,7,1                ! Use original area so load is constant in large deformation
esel,all
/gst,on,on
fini
*get,_numnode,node,0,count
*get,_numelem,elem,0,count
*get, _MAXELEMNUM, elem, 0, NUM, MAX
*get, _MAXNODENUM, node, 0, NUM, MAX
*get, _MAXELEMTYPE, etyp, 0, NUM, MAX
*get, _MAXREALCONST, rcon, 0, NUM, MAX
/go
/wb,load,end               !  done creating loads
/com,--- Number of total nodes = %_numnode%
/com,--- Number of contact elements = 3
/com,--- Number of spring elements = 0
/com,--- Number of bearing elements = 0
/com,--- Number of solid elements = 1521
/com,--- Number of condensed parts = 0
/com,--- Number of total elements = %_numelem%
*get,_wallbsol,active,,time,wall
/com,****************************************************************************
/com,*************************    SOLUTION       ********************************
/com,****************************************************************************
/solu
antype,0                   ! static analysis
_thickRatio=  1     ! Ratio of thick parts in the model
eqsl,sparse,,,,,1
cntr,print,1               ! print out contact info and also make no initial contact an error
cncheck,dmp		!	Enable program controlled contact splitting for distributed memory parallel run
dmpoption,emat,no             ! Don't combine emat file for DANSYS
dmpoption,esav,no             ! Don't combine esav file for DANSYS
nldiag,cont,iter           ! print out contact info each equilibrium iteration
rescontrol,,none                 ! Do not keep any restart files
/com,****************************************************
/com,******************* SOLVE FOR LS 1 OF 1 ****************
esel,s,type,,2
nsle
sfe,all,1,pres,1,0.
sfe,all,2,pres,1,0.
sfe,all,3,pres,1,-4.9999999999975e-002
nsel,all
esel,all
/nopr
/gopr
nsub,1,1,1
time,1.
outres,erase
outres,all,none
outres,nsol,all,
outres,rsol,all
outres,eangl,all
outres,etmp,all
outres,veng,all
outres,strs,all,
outres,epel,all,
outres,eppl,all,
outres,cont,all,
! *********** WB SOLVE COMMAND ***********
! check interactive state
*get,ANSINTER_,active,,int
*if,ANSINTER_,ne,0,then
/eof
*endif
solve
/com *************** Write FE CONNECTORS ********* 
CEWRITE,file,ce,,INTE
/com,****************************************************
/com,*************** FINISHED SOLVE FOR LS 1 *************
*get,_wallasol,active,,time,wall
/nopr
*get,_numnode,node,0,count
*get,_numelem,elem,0,count
*get, _MAXELEMNUM, elem, 0, NUM, MAX
*get, _MAXNODENUM, node, 0, NUM, MAX,,,INTERNAL
*get, _MAXELEMTYPE, etyp, 0, NUM, MAX
*get, _MAXREALCONST, rcon, 0, NUM, MAX
*get,_NSOLTHREADS,active,0,ntfs
*get,_NSOLPROCESSES,active,0,npfs
/gopr
/post1
xmlo,ENCODING,ISO-8859-1
xmlo,parm
/xml,parm,xml
fini
/gopr
*get,_walldone,active,,time,wall
_preptime=(_wallbsol-_wallstrt)*3600
_solvtime=(_wallasol-_wallbsol)*3600
_posttime=(_walldone-_wallasol)*3600
_totaltim=(_walldone-_wallstrt)*3600
*get,_dlbratio,active,0,solu,dlbr
*get,_combtime,active,0,solu,comb
*get,_ssmode,active,0,solu,ssmm
*get,_ndofs,active,0,solu,ndof
*get,_sol_end_time,active,0,set,time
*if,_sol_end_time,eq,1.000000,then
/fclean				!clean distributed files
*endif
/com,--- Total number of nodes = %_numnode%
/com,--- Total number of elements = %_numelem%
/com,--- Element load balance ratio = %_dlbratio%
/com,--- Time to combine distributed files = %_combtime%
/com,--- Sparse memory mode = %_ssmode%
/com,--- Number of DOF = %_ndofs%
/wb,file,end               ! done with WB generated input
